
     RDKit          3D

 32 34  0  0  0  0  0  0  0  0999 V2000
   -3.3851    2.2991    1.3899 C   0  0  0  0  0  0  0  0  0  0  0  0
   -3.3059    0.9331    0.8690 C   0  0  0  0  0  0  0  0  0  0  0  0
   -4.3575    0.0474    0.7684 N   0  0  0  0  0  0  0  0  0  0  0  0
   -4.0154   -0.9964    0.1320 O   0  0  0  0  0  0  0  0  0  0  0  0
   -2.6885   -0.8905   -0.2491 C   0  0  0  0  0  0  0  0  0  0  0  0
   -2.0551   -2.0228   -0.9971 C   0  0  0  0  0  0  0  0  0  0  0  0
   -2.2374    0.3301    0.2028 C   0  0  0  0  0  0  0  0  0  0  0  0
   -0.9335    0.8355    0.3235 C   0  0  0  0  0  0  0  0  0  0  0  0
    0.2105    0.6929   -0.4391 N   0  0  0  0  0  0  0  0  0  0  0  0
    0.5909    1.6809   -1.4327 C   0  0  0  0  0  0  0  0  0  0  0  0
   -0.1512    2.5410   -1.8087 O   0  0  0  0  0  0  0  0  0  0  0  0
    2.0070    1.4040   -1.8223 C   0  0  0  0  0  0  0  0  0  0  0  0
    2.6922    2.0595   -2.6677 O   0  0  0  0  0  0  0  0  0  0  0  0
    2.4026    0.2520   -1.0250 C   0  0  0  0  0  0  0  0  0  0  0  0
    3.6952   -0.3300   -0.7696 C   0  0  0  0  0  0  0  0  0  0  0  0
    3.9056   -1.2885    0.2280 C   0  0  0  0  0  0  0  0  0  0  0  0
    5.1989   -1.8396    0.5952 C   0  0  0  0  0  0  0  0  0  0  0  0
    6.0879   -2.2163    0.8322 N   0  0  0  0  0  0  0  0  0  0  0  0
    2.7869   -1.6836    0.9536 C   0  0  0  0  0  0  0  0  0  0  0  0
    1.5993   -1.1305    0.7052 C   0  0  0  0  0  0  0  0  0  0  0  0
    1.3653   -0.1569   -0.2437 C   0  0  0  0  0  0  0  0  0  0  0  0
   -3.7786    2.9037    0.4614 H   0  0  0  0  0  0  0  0  0  0  0  0
   -2.4582    2.7286    1.7115 H   0  0  0  0  0  0  0  0  0  0  0  0
   -4.1746    2.5062    2.1787 H   0  0  0  0  0  0  0  0  0  0  0  0
   -1.8087   -1.7975   -2.0361 H   0  0  0  0  0  0  0  0  0  0  0  0
   -2.6902   -2.9294   -0.9717 H   0  0  0  0  0  0  0  0  0  0  0  0
   -1.0899   -2.3946   -0.5367 H   0  0  0  0  0  0  0  0  0  0  0  0
   -0.5561    0.4666    1.4159 H   0  0  0  0  0  0  0  0  0  0  0  0
   -0.9147    1.9710    0.6318 H   0  0  0  0  0  0  0  0  0  0  0  0
    4.5203   -0.0327   -1.3579 H   0  0  0  0  0  0  0  0  0  0  0  0
    2.8990   -2.4899    1.7007 H   0  0  0  0  0  0  0  0  0  0  0  0
    0.6390   -1.4525    1.2577 H   0  0  0  0  0  0  0  0  0  0  0  0
  1  2  1  0
  2  3  2  0
  3  4  1  0
  4  5  1  0
  5  6  1  0
  5  7  2  0
  7  8  1  0
  8  9  1  0
  9 10  1  0
 10 11  2  0
 10 12  1  0
 12 13  2  0
 12 14  1  0
 14 15  2  0
 15 16  1  0
 16 17  1  0
 17 18  3  0
 16 19  2  0
 19 20  1  0
 20 21  2  0
  7  2  1  0
 21  9  1  0
 21 14  1  0
  1 22  1  0
  1 23  1  0
  1 24  1  0
  6 25  1  0
  6 26  1  0
  6 27  1  0
  8 28  1  0
  8 29  1  0
 15 30  1  0
 19 31  1  0
 20 32  1  0
M  END
$$$$
